REMARK  4 active torsions:
REMARK  status: ('A' for Active; 'I' for Inactive)
REMARK    1  A    between atoms: N1_2  and  C9_14 
REMARK    2  A    between atoms: O3_8  and  C25_30 
REMARK    3  A    between atoms: O3_8  and  C24_29 
REMARK    4  A    between atoms: C9_14  and  C16_21 
ROOT
HETATM    1  C1  VIN A6331      22.701  40.709  32.791  1.00 23.25     0.056 A 
HETATM    2  N1  VIN A6331      22.934  41.238  34.045  1.00 25.34    -0.325 N 
HETATM    3  C2  VIN A6331      22.495  41.800  31.961  1.00 23.18     0.015 A 
HETATM    4  N2  VIN A6331      21.818  41.766  28.381  1.00 24.55    -0.229 NA
HETATM    5  O2  VIN A6331      21.799  39.590  27.765  1.00 29.99    -0.266 OA
HETATM    6  C3  VIN A6331      22.655  39.375  32.294  1.00 23.80    -0.006 A 
HETATM    7  C4  VIN A6331      22.244  41.567  30.607  1.00 23.56     0.008 A 
HETATM    8  C5  VIN A6331      22.598  42.987  32.735  1.00 23.99     0.017 A 
HETATM    9  C6  VIN A6331      22.406  39.108  30.900  1.00 23.19     0.002 A 
HETATM   10  C7  VIN A6331      22.860  38.175  33.186  1.00 23.87     0.033 C 
HETATM   11  C8  VIN A6331      22.872  42.604  34.035  1.00 22.54     0.060 A 
HETATM   12  C10 VIN A6331      22.205  40.258  30.096  1.00 25.07     0.055 A 
HETATM   13  C11 VIN A6331      21.999  42.572  29.534  1.00 24.16     0.155 A 
HETATM   14  C12 VIN A6331      22.484  44.354  32.441  1.00 21.68     0.002 A 
HETATM   15  C13 VIN A6331      22.400  37.738  30.469  1.00 20.17    -0.004 A 
HETATM   16  C14 VIN A6331      21.884  37.066  32.817  1.00 22.49     0.031 C 
HETATM   17  C15 VIN A6331      23.038  43.527  35.064  1.00 22.11     0.017 A 
HETATM   18  C17 VIN A6331      21.925  40.426  28.635  1.00 25.10     0.275 A 
HETATM   19  C18 VIN A6331      22.646  45.279  33.460  1.00 22.69     0.000 A 
HETATM   20  C19 VIN A6331      22.148  36.700  31.392  1.00 23.38    -0.020 A 
HETATM   21  C20 VIN A6331      22.655  37.313  29.157  1.00 22.66     0.002 A 
HETATM   22  C21 VIN A6331      22.919  44.871  34.757  1.00 21.71     0.002 A 
HETATM   23  C22 VIN A6331      22.151  35.339  31.014  1.00 25.32     0.020 A 
HETATM   24  C23 VIN A6331      22.663  35.967  28.768  1.00 23.99     0.024 A 
HETATM   25  C24 VIN A6331      22.411  34.973  29.694  1.00 25.14     0.094 A 
ENDROOT
BRANCH   2  26
HETATM   26  C9  VIN A6331      23.224  40.508  35.267  1.00 29.75     0.142 C 
BRANCH  26  27
HETATM   27  C16 VIN A6331      24.673  39.985  35.309  1.00 32.76     0.207 C 
HETATM   28  O1  VIN A6331      25.544  40.800  34.512  1.00 31.07    -0.218 OA
ENDBRANCH  26  27
ENDBRANCH   2  26
BRANCH  25  29
HETATM   29  O3  VIN A6331      22.394  33.648  29.453  1.00 26.11    -0.333 OA
BRANCH  29  30
HETATM   30  C25 VIN A6331      22.641  33.207  28.116  1.00 29.56     0.121 C 
HETATM   31  C26 VIN A6331      21.288  33.202  27.386  1.00 27.40     0.033 C 
HETATM   32  C27 VIN A6331      23.244  31.803  28.135  1.00 28.20     0.033 C 
ENDBRANCH  29  30
ENDBRANCH  25  29
TORSDOF 4
